@<TRIPOS>MOLECULE
35DCPN-DOCK.pdb
   12    12     1     0     0
SMALL
bcc


@<TRIPOS>ATOM
      1 C1         -10.5770     8.8420    10.4430 ca         1 UNL       0.404200
      2 N6          -9.7700     8.0330     9.7230 nb         1 UNL      -0.610000
      3 N11         -7.0900     6.1820     9.0380 n1         1 UNL      -0.319800
      4 C12        -10.2750     9.2980    11.7150 ca         1 UNL      -0.081900
      5 C23         -9.0710     8.9000    12.2890 ca         1 UNL      -0.093000
      6 C34         -8.2190     8.0670    11.5730 ca         1 UNL      -0.063900
      7 C45         -8.6080     7.6630    10.3060 ca         1 UNL       0.497300
      8 C57         -7.8010     6.8760     9.6330 cg         1 UNL       0.129800
      9 Cl19       -11.3590    10.3280    12.5650 cl         1 UNL      -0.047400
     10 Cl8         -6.7220     7.5510    12.2420 cl         1 UNL      -0.037400
     11 HH11        -8.7970     9.2420    13.2970 ha         1 UNL       0.173000
     12 H11        -11.5290     9.1570     9.9920 h4         1 UNL       0.050100
@<TRIPOS>BOND
     1     3     8 3   
     2     8     7 1   
     3     2     7 ar  
     4     2     1 ar  
     5    12     1 1   
     6     7     6 ar  
     7     1     4 ar  
     8     6    10 1   
     9     6     5 ar  
    10     4     5 ar  
    11     4     9 1   
    12     5    11 1   
@<TRIPOS>SUBSTRUCTURE
     1 UNL         1 TEMP              0 ****  ****    0 ROOT